

# Run_Name
gemc_CH4_40_CO2_270.out
!------------------------------------------------------------------------------

# Sim_Type
gemc
!------------------------------------------------------------------------------

# Nbr_Species
2
!------------------------------------------------------------------------------

# VDW_Style
lj cut_tail 12.0
lj cut_tail 12.0
!------------------------------------------------------------------------------

# Charge_Style
coul dsf 12.0 0.2
coul dsf 12.0 0.2
!------------------------------------------------------------------------------

# Mixing_Rule
LB
!------------------------------------------------------------------------------

# Seed_Info
35721 74465
!------------------------------------------------------------------------------

# Rcutoff_Low
1.0
!------------------------------------------------------------------------------

# Pair_Energy
true

# Molecule_Files
C.mcf 1000
CO2_potoff.mcf 1200
!----------------------------------------------------------one line per species

# Box_Info
2
cubic
35

cubic
55
!-------------------------------------------------------line 1: number of boxes
!--------------------------------------------------------------line 2: box type
!--------------------------------------------------------------line 3: box size

# Temperature_Info
270.0
270.0
!------------------------------------------------------------------------------


# Move_Probability_Info

# Prob_Translation
0.45
2.0 2.0
2.0 2.0

# Prob_Rotation
0.45
30.0 30.0
30.0 30.0

# Prob_Swap
0.095
cbmc cbmc

# Prob_Volume
0.005
500
500

# Done_Probability_Info
!---------------------one line for each box and one entry/line for each species
!-----------------------------------------each molecule moves per volume change

# Start_Type
make_config 400 0
make_config 0 600
!--------make_config: one line for each species and one entry/line for each box
!------------------------------------------------------------read_old: filename
!----------------------------------------------------------checkpoint: filename

# Run_Type
equilibration 1000 100
!---------------------------

# Simulation_Length_Info
units        steps
prop_freq    10000
coord_freq   1000000
run          100000000
!------------------  

# Property_Info 1 
energy_total
pressure
volume
nmols
mass_density

# Property_Info 2 
energy_total
pressure
volume
nmols
mass_density
!------------------------------------------------------------------------------

# Fragment_Files
species1/frag1/frag1.dat  1
species2/frag1/frag1.dat  2
!---------------------------------------------------------one line per fragment

# CBMC_Info
kappa_ins 10
kappa_dih 10
rcut_cbmc 6.5 6.5
!------------------------------------------------------------------------------

END
